          28
 Lattice="   6.5085482252188926        0.0000000000000000        0.0000000000000000       -3.2542741126094454        5.6365681047956819        0.0000000000000000        0.0000000000000000        0.0000000000000000        43.350000000000001      "Properties=species:S:1:pos:R:3:vel:R:3:for:R:3:cha:R:1  Time=   0.0000000000000000     
 T    0.0000000000000000        0.0000000000000000        20.000000000000000       -0.0000000000000000       -0.0000000000000000        0.0000000000000000        0.0000000000000000        0.0000000000000000        0.0000000000000000       -7.6401128412673103E-005
 T    1.8595852072053978        2.1472640399221650        20.000000000000000       -0.0000000000000000       -0.0000000000000000       -0.0000000000000000        0.0000000000000000        0.0000000000000000        0.0000000000000000        7.2156784787558159E-005
 T    2.3244815090067474       0.80522401497081153        20.000000000000000       -0.0000000000000000        0.0000000000000000       -0.0000000000000000        0.0000000000000000        0.0000000000000000        0.0000000000000000       -1.1447899065464284E-004
 T    3.7191704144107964       0.53681600998054058        20.000000000000000        0.0000000000000000        0.0000000000000000        0.0000000000000000        0.0000000000000000        0.0000000000000000        0.0000000000000000        1.6473379692305556E-004
 T    2.7893778108080962        3.2208960598832479        20.000000000000000       -0.0000000000000000       -0.0000000000000000        0.0000000000000000        0.0000000000000000        0.0000000000000000        0.0000000000000000       -1.9899462241346200E-005
 T    4.1840667162121461        2.9524880548929771        20.000000000000000        0.0000000000000000        0.0000000000000000        0.0000000000000000        0.0000000000000000        0.0000000000000000        0.0000000000000000       -2.7753376345307501E-005
 T    4.6489630180134949        1.6104480299416231        20.000000000000000        0.0000000000000000        0.0000000000000000       -0.0000000000000000        0.0000000000000000        0.0000000000000000        0.0000000000000000       -1.7047990909224708E-004
 T  -0.46489630180134872        1.3420400249513522        20.000000000000000        0.0000000000000000       -0.0000000000000000       -0.0000000000000000        0.0000000000000000        0.0000000000000000        0.0000000000000000        4.8351190222839513E-005
 T   -1.8595852072053995        5.3681600998054133        20.000000000000000        0.0000000000000000       -0.0000000000000000       -0.0000000000000000        0.0000000000000000        0.0000000000000000        0.0000000000000000        2.6803999922164756E-005
 T   -1.3946889054040490        4.0261200748540595        20.000000000000000        0.0000000000000000       -0.0000000000000000        0.0000000000000000        0.0000000000000000        0.0000000000000000        0.0000000000000000        1.4670239531799911E-004
 T   -8.8817841970012523E-016   3.7577120698637883        20.000000000000000        0.0000000000000000       -0.0000000000000000        0.0000000000000000        0.0000000000000000        0.0000000000000000        0.0000000000000000       -2.2493736130835273E-004
 T   0.46489630180134878        2.4156720449124358        20.000000000000000       -0.0000000000000000        0.0000000000000000        0.0000000000000000        0.0000000000000000        0.0000000000000000        0.0000000000000000        9.8123167413644019E-005
 T   0.92979260360269977        4.8313440898248716        20.000000000000000       -0.0000000000000000        0.0000000000000000       -0.0000000000000000        0.0000000000000000        0.0000000000000000        0.0000000000000000        1.2054168123110109E-004
 T    2.3244815090067479        4.5629360848345994        20.000000000000000        0.0000000000000000        0.0000000000000000        0.0000000000000000        0.0000000000000000        0.0000000000000000        0.0000000000000000       -4.3488737728081261E-005
 B    0.0000000000000000        0.0000000000000000        23.350000000000001        0.0000000000000000        0.0000000000000000       -0.0000000000000000        0.0000000000000000        0.0000000000000000        0.0000000000000000       -7.6410136374160942E-005
 B    1.3946889054040481       0.26840800499027012        23.350000000000001        0.0000000000000000        0.0000000000000000       -0.0000000000000000        0.0000000000000000        0.0000000000000000        0.0000000000000000        4.8341143447983015E-005
 B    1.8595852072053991        1.6104480299416231        23.350000000000001       -0.0000000000000000       -0.0000000000000000       -0.0000000000000000        0.0000000000000000        0.0000000000000000        0.0000000000000000        9.8130047199496140E-005
 B    3.2542741126094468        1.8788560349318932        23.350000000000001       -0.0000000000000000        0.0000000000000000        0.0000000000000000        0.0000000000000000        0.0000000000000000        0.0000000000000000       -2.2494740739364971E-004
 B    4.1840667162121461       0.80522401497081020        23.350000000000001       -0.0000000000000000        0.0000000000000000        0.0000000000000000        0.0000000000000000        0.0000000000000000        0.0000000000000000        1.4666708574451182E-004
 B    5.5787556216161951        1.0736320199610803        23.350000000000001       -0.0000000000000000       -0.0000000000000000       -0.0000000000000000        0.0000000000000000        0.0000000000000000        0.0000000000000000        2.6809458627097271E-005
 B    2.7893778108080980        4.2945280798443282        23.350000000000001        0.0000000000000000       -0.0000000000000000       -0.0000000000000000        0.0000000000000000        0.0000000000000000        0.0000000000000000       -4.3489848944311404E-005
 B    3.7191704144107982        3.2208960598832461        23.350000000000001       -0.0000000000000000       -0.0000000000000000        0.0000000000000000        0.0000000000000000        0.0000000000000000        0.0000000000000000        1.2055791830278828E-004
 B   -1.3946889054040463        3.4893040648735161        23.350000000000001       -0.0000000000000000        0.0000000000000000       -0.0000000000000000        0.0000000000000000        0.0000000000000000        0.0000000000000000        1.6474910132369125E-004
 B  -0.46489630180134678        2.4156720449124331        23.350000000000001        0.0000000000000000       -0.0000000000000000        0.0000000000000000        0.0000000000000000        0.0000000000000000        0.0000000000000000       -1.1447191949809365E-004
 B   0.92979260360270044        2.6840800499027035        23.350000000000001        0.0000000000000000        0.0000000000000000        0.0000000000000000        0.0000000000000000        0.0000000000000000        0.0000000000000000        7.2151412628729261E-005
 B  -0.92979260360269800        4.8313440898248690        23.350000000000001       -0.0000000000000000        0.0000000000000000       -0.0000000000000000        0.0000000000000000        0.0000000000000000        0.0000000000000000       -1.7047393317803916E-004
 B   0.46489630180135189        5.0997520948151394        23.350000000000001       -0.0000000000000000       -0.0000000000000000       -0.0000000000000000        0.0000000000000000        0.0000000000000000        0.0000000000000000       -2.7723151454939199E-005
 B    1.3946889054040512        4.0261200748540569        23.350000000000001        0.0000000000000000        0.0000000000000000        0.0000000000000000        0.0000000000000000        0.0000000000000000        0.0000000000000000       -1.9907146754150062E-005
